Version 4
SHEET 1 992 680
WIRE 64 -64 -128 -64
WIRE 208 -64 64 -64
WIRE 704 -64 208 -64
WIRE 64 -32 64 -64
WIRE 208 -32 208 -64
WIRE 704 -32 704 -64
WIRE 64 -16 64 -32
WIRE -128 48 -128 -64
WIRE 832 48 704 48
WIRE 208 64 208 48
WIRE 416 64 208 64
WIRE 640 64 496 64
WIRE 640 96 640 64
WIRE 64 112 64 48
WIRE 144 112 64 112
WIRE 64 128 64 112
WIRE -128 256 -128 128
WIRE 208 272 208 160
WIRE 704 272 704 144
FLAG -128 256 0
FLAG 208 272 0
FLAG 832 48 RESETN
IOPIN 832 48 Out
FLAG 704 272 0
FLAG 64 272 0
SYMBOL npn 144 64 R0
SYMATTR InstName Q1
SYMATTR Value BC182B
SYMBOL voltage -128 32 R0
WINDOW 3 -270 103 Left 2
WINDOW 123 0 0 Left 0
WINDOW 39 0 0 Left 0
SYMATTR InstName V1
SYMATTR Value PULSE(0 3.3 0 0.02 0.01 0.01 2)
SYMBOL res 192 -48 R0
SYMATTR InstName R1
SYMATTR Value 100K
SYMBOL npn 640 48 R0
SYMATTR InstName Q2
SYMATTR Value BC182B
SYMBOL res 688 -48 R0
SYMATTR InstName R3
SYMATTR Value 15K
SYMBOL res 512 48 R90
WINDOW 0 0 56 VBottom 2
WINDOW 3 32 56 VTop 2
SYMATTR InstName R5
SYMATTR Value 220K
SYMBOL res 48 -48 R0
SYMATTR InstName R4
SYMATTR Value 68K
SYMBOL res 48 112 R0
SYMATTR InstName R2
SYMATTR Value 3.3K
SYMBOL diode 48 208 R0
WINDOW 0 42 26 Left 2
WINDOW 3 36 53 Left 2
SYMATTR InstName D1
SYMATTR Value 1N4148
TEXT -402 200 Left 2 !.tran 30m
TEXT -400 240 Left 2 !.TEMP 0 20 40 60
